Version 4
SHEET 1 2180 804
WIRE -1312 -624 -1312 -640
WIRE -1264 -624 -1312 -624
WIRE -1488 -608 -1488 -640
WIRE -1264 -608 -1264 -624
WIRE -1104 -608 -1104 -640
WIRE -944 -608 -944 -640
WIRE -800 -608 -800 -640
WIRE -624 -608 -624 -640
WIRE -432 -608 -432 -640
WIRE -896 -400 -1040 -400
WIRE -688 -400 -832 -400
WIRE 112 -320 -32 -320
WIRE 320 -320 176 -320
WIRE -1648 -304 -1696 -304
WIRE -1600 -304 -1648 -304
WIRE -1120 -272 -1328 -272
WIRE -1040 -272 -1040 -400
WIRE -1040 -272 -1120 -272
WIRE -1008 -272 -1040 -272
WIRE -1600 -240 -1600 -304
WIRE -1328 -240 -1328 -272
WIRE -688 -224 -688 -400
WIRE -688 -224 -720 -224
WIRE -640 -224 -688 -224
WIRE -592 -224 -640 -224
WIRE -112 -192 -320 -192
WIRE -32 -192 -32 -320
WIRE -32 -192 -112 -192
WIRE 0 -192 -32 -192
WIRE -1008 -176 -1072 -176
WIRE -592 -160 -592 -224
WIRE -320 -160 -320 -192
WIRE 320 -144 320 -320
WIRE 320 -144 288 -144
WIRE 480 -144 320 -144
WIRE 528 -144 480 -144
WIRE -1600 -128 -1600 -160
WIRE -1504 -128 -1600 -128
WIRE -1328 -128 -1328 -160
WIRE -1328 -128 -1440 -128
WIRE 1008 -112 1008 -144
WIRE -1600 -96 -1600 -128
WIRE -1328 -96 -1328 -128
WIRE 0 -96 -64 -96
WIRE 848 -96 816 -96
WIRE 912 -96 848 -96
WIRE 976 -96 912 -96
WIRE 1072 -96 1040 -96
WIRE 1104 -96 1072 -96
WIRE 1008 -64 1008 -80
WIRE -592 -48 -592 -80
WIRE -496 -48 -592 -48
WIRE -320 -48 -320 -80
WIRE -320 -48 -432 -48
WIRE 528 -48 480 -48
WIRE -592 -16 -592 -48
WIRE -320 -16 -320 -48
WIRE 656 32 656 -16
WIRE 160 144 160 128
WIRE -1600 160 -1600 -16
WIRE -1600 160 -1616 160
WIRE -592 160 -592 64
WIRE -592 160 -1600 160
WIRE 64 160 -592 160
WIRE 128 160 64 160
WIRE 848 160 848 -96
WIRE 848 160 192 160
WIRE 160 208 160 176
FLAG -1488 -608 0
FLAG -624 -608 0
FLAG -624 -720 phi1
FLAG -944 -608 0
FLAG -944 -720 Vdd
FLAG -800 -608 0
FLAG -800 -720 Vcm
FLAG -1104 -608 0
FLAG -1104 -720 Vref
FLAG -1488 -720 Vin
FLAG -1264 -608 0
FLAG -1312 -688 Vdd
FLAG -1264 -704 trip
FLAG -432 -608 0
FLAG -432 -720 phi2
FLAG 480 -48 Vcm
FLAG 656 -176 Vdd
FLAG 656 32 phi1
FLAG 912 -96 Vcmp
FLAG 480 -144 Vo2
FLAG 160 128 Vref
FLAG -64 -96 Vcm
FLAG -112 -192 diff2
FLAG 64 160 Vfb
FLAG -320 64 Vcm
FLAG -640 -96 trip
FLAG -640 48 trip
FLAG -368 -96 trip
FLAG -368 48 trip
FLAG -640 -144 phi1
FLAG -368 0 phi1
FLAG -640 0 phi2
FLAG -368 -144 phi2
FLAG 1072 -96 Vout
FLAG 1008 -144 Vdd
FLAG -640 -224 Vo1
FLAG -1072 -176 Vcm
FLAG -1120 -272 diff1
FLAG -1328 -16 Vcm
FLAG -1648 -176 trip
FLAG -1648 -32 trip
FLAG -1376 -176 trip
FLAG -1376 -32 trip
FLAG -1648 -224 phi1
FLAG -1376 -80 phi1
FLAG -1648 -80 phi2
FLAG -1376 -224 phi2
FLAG -1648 -304 Vin
FLAG -256 -640 0
FLAG -256 -720 Vss
FLAG 1008 -64 Vss
FLAG 160 208 Vss
SYMBOL voltage -1488 -736 R0
WINDOW 123 0 0 Left 2
WINDOW 39 0 0 Left 2
WINDOW 0 -96 20 Left 2
WINDOW 3 -209 104 Left 2
SYMATTR InstName Vin
SYMATTR Value SINE({Voff} {Vamp} {freq})
SYMBOL voltage -624 -736 R0
WINDOW 0 36 42 Left 2
WINDOW 3 -52 207 VLeft 2
WINDOW 123 0 0 Left 2
WINDOW 39 0 0 Left 2
SYMATTR InstName Vphi1
SYMATTR Value PULSE(0V {VDD} 0 0.1ns 0.1ns {Ton} {Ts})
SYMBOL voltage -944 -736 R0
WINDOW 123 0 0 Left 2
WINDOW 39 0 0 Left 2
SYMATTR InstName VDD1
SYMATTR Value {VDD}
SYMBOL voltage -800 -736 R0
WINDOW 123 0 0 Left 2
WINDOW 39 0 0 Left 2
SYMATTR InstName VCM1
SYMATTR Value {VCM}
SYMBOL voltage -1104 -736 R0
WINDOW 123 0 0 Left 2
WINDOW 39 0 0 Left 2
SYMATTR InstName Vref1
SYMATTR Value {Vref}
SYMBOL e -1264 -720 R0
WINDOW 0 39 37 Left 2
WINDOW 3 38 79 Left 2
SYMATTR InstName Etrip1
SYMATTR Value 0.5
SYMBOL voltage -432 -736 R0
WINDOW 0 36 42 Left 2
WINDOW 3 -52 207 VLeft 2
WINDOW 123 0 0 Left 2
WINDOW 39 0 0 Left 2
SYMATTR InstName Vphi2
SYMATTR Value PULSE(0V {VDD} {T_delay} 0.1ns 0.1ns {Ton} {Ts})
SYMBOL cap 176 -336 R90
WINDOW 0 0 32 VBottom 2
WINDOW 3 32 32 VTop 2
SYMATTR InstName Cf2
SYMATTR Value 1p
SYMBOL INV 192 192 M0
SYMATTR InstName X2
SYMBOL sw -592 -64 M180
WINDOW 3 24 -12 Left 2
WINDOW 38 39 37 Left 2
WINDOW 0 35 82 Left 2
SYMATTR Value ""
SYMATTR SpiceModel switch
SYMATTR InstName S1
SYMBOL cap -432 -64 R90
WINDOW 0 0 32 VBottom 2
WINDOW 3 32 32 VTop 2
SYMATTR InstName Cs2
SYMATTR Value 4.26p
SYMBOL sw -592 80 M180
WINDOW 3 24 -12 Left 2
WINDOW 38 39 37 Left 2
WINDOW 0 35 82 Left 2
SYMATTR Value ""
SYMATTR SpiceModel switch
SYMATTR InstName S2
SYMBOL sw -320 -64 M180
WINDOW 3 24 -12 Left 2
WINDOW 38 39 37 Left 2
WINDOW 0 35 82 Left 2
SYMATTR Value ""
SYMATTR SpiceModel switch
SYMATTR InstName S3
SYMBOL sw -320 80 M180
WINDOW 3 24 -12 Left 2
WINDOW 38 39 37 Left 2
WINDOW 0 35 82 Left 2
SYMATTR Value ""
SYMATTR SpiceModel switch
SYMATTR InstName S4
SYMBOL INV 976 -64 R0
SYMATTR InstName X4
SYMBOL cap -832 -416 R90
WINDOW 0 0 32 VBottom 2
WINDOW 3 32 32 VTop 2
SYMATTR InstName Cf1
SYMATTR Value 15.6p
SYMBOL sw -1600 -144 M180
WINDOW 3 24 -12 Left 2
WINDOW 38 39 37 Left 2
WINDOW 0 35 82 Left 2
SYMATTR Value ""
SYMATTR SpiceModel switch
SYMATTR InstName S5
SYMBOL cap -1440 -144 R90
WINDOW 0 0 32 VBottom 2
WINDOW 3 32 32 VTop 2
SYMATTR InstName Cs1
SYMATTR Value 0.948p
SYMBOL sw -1600 0 M180
WINDOW 3 24 -12 Left 2
WINDOW 38 39 37 Left 2
WINDOW 0 35 82 Left 2
SYMATTR Value ""
SYMATTR SpiceModel switch
SYMATTR InstName S6
SYMBOL sw -1328 -144 M180
WINDOW 3 24 -12 Left 2
WINDOW 38 39 37 Left 2
WINDOW 0 35 82 Left 2
SYMATTR Value ""
SYMATTR SpiceModel switch
SYMATTR InstName S7
SYMBOL sw -1328 0 M180
WINDOW 3 24 -12 Left 2
WINDOW 38 39 37 Left 2
WINDOW 0 35 82 Left 2
SYMATTR Value ""
SYMATTR SpiceModel switch
SYMATTR InstName S8
SYMBOL voltage -256 -736 R0
WINDOW 123 0 0 Left 0
WINDOW 39 0 0 Left 0
SYMATTR InstName V1
SYMATTR Value -1
TEXT 512 -856 Left 3 !.tran 0 {Tstop} 0 {Ts}
TEXT 512 -960 Left 3 !.options plotwinsize=0
TEXT 512 -912 Left 3 !.model switch sw ron=.1
TEXT 16 -968 Left 3 !.param VDD=3.3\n.param Vref=3.3\n.param Vcm=VDD/2.0\n.param Voff=Vcm\n.param Vamp=0.8\n.param freq=10.003k
TEXT 16 -664 Left 3 !.param Ts=354.30839ns Tstop=23.219954ms
TEXT 16 -744 Left 3 !.param Ton= Ts
TEXT 16 -704 Left 3 !.param T_delay=Ts/2
TEXT -1744 -1328 Left 5 ;Second order Delta-Sigma Modulator
TEXT -1736 -1256 Left 4 ;OSR = 64
TEXT -1736 -1208 Left 4 ;Sampling frequency = 2.8224MHz
TEXT -1736 -1152 Left 4 ;Modulator order = 2
TEXT -1736 -1104 Left 4 ;Signal Bandwidth = 20KHz
TEXT -1736 -1056 Left 4 ;Dynamic Range = 16 bits
TEXT -1736 -1008 Left 4 ;Nyquist frequency = 44.1KHz
